Version 4
SHEET 1 928 680
WIRE 624 -112 592 -112
WIRE 48 -80 -160 -80
WIRE 176 -80 48 -80
WIRE 400 -80 256 -80
WIRE 464 -80 400 -80
WIRE 624 -80 624 -112
WIRE 768 -80 624 -80
WIRE 800 -80 768 -80
WIRE -160 0 -160 -80
WIRE 400 0 400 -80
WIRE 48 16 48 -80
WIRE 464 16 432 16
WIRE 624 16 624 -80
WIRE 768 16 768 -80
WIRE 352 80 240 80
WIRE 464 80 432 80
WIRE -160 176 -160 80
WIRE 48 176 48 80
WIRE 48 176 -160 176
WIRE 400 176 400 112
WIRE 400 176 48 176
WIRE 624 176 624 80
WIRE 624 176 400 176
WIRE 768 176 768 96
WIRE 768 176 624 176
WIRE -160 192 -160 176
WIRE 176 256 112 256
WIRE 304 256 256 256
WIRE 464 256 448 256
WIRE 560 256 544 256
FLAG 800 -80 V_out
IOPIN 800 -80 Out
FLAG -160 192 0
FLAG 240 80 V_G
IOPIN 240 80 In
FLAG 112 256 0
FLAG 304 256 V_G
IOPIN 304 256 In
FLAG 384 112 0
FLAG 464 80 T_c
IOPIN 464 80 In
FLAG 464 16 T_j
IOPIN 464 16 Out
FLAG 448 256 0
FLAG 560 256 T_c
IOPIN 560 256 In
SYMBOL ind 160 -64 R270
WINDOW 0 32 56 VTop 2
WINDOW 3 5 56 VBottom 2
SYMATTR InstName L
SYMATTR Value 25.33Á
SYMBOL cap 608 16 R0
SYMATTR InstName C_out
SYMATTR Value 18Á
SYMBOL cap 32 16 R0
SYMATTR InstName C_in
SYMATTR Value 47Á
SYMBOL voltage -160 -16 R0
WINDOW 123 0 0 Left 0
WINDOW 39 0 0 Left 0
SYMATTR InstName V_in
SYMATTR Value 48
SYMBOL voltage 272 256 R90
WINDOW 0 -32 56 VBottom 2
WINDOW 3 32 56 VTop 2
WINDOW 123 0 0 Left 0
WINDOW 39 0 0 Left 0
SYMATTR InstName V_G
SYMATTR Value PULSE(0 15 0 10n 10n 8.8u 10u)
SYMBOL nmos_TO247_4L 352 0 R0
WINDOW 3 -160 28 Left 2
WINDOW 0 -28 53 Left 2
SYMATTR Value C3M0016120K
SYMATTR InstName U1
SYMBOL res 752 0 R0
SYMATTR InstName R_L
SYMATTR Value 60
SYMBOL voltage 560 256 R90
WINDOW 0 -32 56 VBottom 2
WINDOW 3 32 56 VTop 2
WINDOW 123 0 0 Left 0
WINDOW 39 0 0 Left 0
SYMATTR InstName T_c
SYMATTR Value 25
SYMBOL C4D20120D 512 -112 R0
SYMATTR InstName U2
TEXT -248 -320 Left 2 ;Simulaciˇn:
TEXT -216 -288 Left 2 !.include Wolfspeed Power C4D Packaged SPICE Model Library.lib
TEXT -216 -240 Left 2 !.tran 0 5m 4.8m 20n
TEXT -216 -264 Left 2 !.include C3M0016120K.lib
