Version 4
SHEET 1 2296 1124
WIRE -208 -336 -304 -336
WIRE 64 -336 -128 -336
WIRE 736 -336 64 -336
WIRE 736 -272 736 -336
WIRE 832 -272 736 -272
WIRE 1008 -240 960 -240
WIRE 832 -208 736 -208
WIRE -304 -160 -304 -336
WIRE -208 -160 -304 -160
WIRE 400 -160 -128 -160
WIRE 736 -160 736 -208
WIRE 736 -160 400 -160
WIRE 1744 -128 1680 -128
WIRE 1888 -128 1824 -128
WIRE 832 -48 768 -48
WIRE 1744 0 1680 0
WIRE 1872 0 1824 0
WIRE -304 16 -304 -160
WIRE -304 16 -480 16
WIRE -208 16 -304 16
WIRE 736 16 -128 16
WIRE 832 16 736 16
WIRE 960 16 960 -16
WIRE 1008 16 1008 -240
WIRE 1008 16 960 16
WIRE 1232 16 1008 16
WIRE 64 80 64 -336
WIRE 400 80 400 -160
WIRE 736 80 736 16
WIRE -480 96 -480 16
WIRE -304 96 -304 16
WIRE 128 96 96 96
WIRE 464 96 432 96
WIRE 800 96 768 96
WIRE 1008 96 1008 16
WIRE 1744 128 1680 128
WIRE 1872 128 1824 128
WIRE 16 160 -16 160
WIRE 112 160 96 160
WIRE 352 160 320 160
WIRE 448 160 432 160
WIRE 688 160 656 160
WIRE 784 160 768 160
WIRE -480 240 -480 176
WIRE -304 240 -304 160
WIRE -304 240 -480 240
WIRE 64 240 64 192
WIRE 64 240 -304 240
WIRE 400 240 400 192
WIRE 400 240 64 240
WIRE 736 240 736 192
WIRE 736 240 400 240
WIRE 1008 240 1008 160
WIRE 1008 240 736 240
WIRE 1120 240 1008 240
WIRE 1232 240 1232 16
WIRE 1360 240 1232 240
WIRE 1424 240 1360 240
WIRE -480 256 -480 240
WIRE 1744 256 1680 256
WIRE 1872 256 1824 256
WIRE 1360 304 1360 240
WIRE 1744 384 1680 384
WIRE 1872 384 1824 384
WIRE -192 416 -288 416
WIRE 80 416 -112 416
WIRE 736 416 80 416
WIRE 1120 448 1120 240
WIRE 1360 448 1360 384
WIRE 1360 448 1120 448
WIRE 1424 448 1360 448
WIRE 736 480 736 416
WIRE 832 480 736 480
WIRE 1024 512 960 512
WIRE 1744 512 1680 512
WIRE 1872 512 1824 512
WIRE 832 544 736 544
WIRE -288 592 -288 416
WIRE -192 592 -288 592
WIRE 416 592 -112 592
WIRE 736 592 736 544
WIRE 736 592 416 592
WIRE 1744 640 1680 640
WIRE 1872 640 1824 640
WIRE -288 768 -288 592
WIRE -288 768 -464 768
WIRE -192 768 -288 768
WIRE 752 768 -112 768
WIRE 864 768 752 768
WIRE 1024 768 1024 512
WIRE 1232 768 1232 240
WIRE 1232 768 1024 768
WIRE 80 832 80 416
WIRE 416 832 416 592
WIRE 752 832 752 768
WIRE -464 848 -464 768
WIRE -288 848 -288 768
WIRE 144 848 112 848
WIRE 480 848 448 848
WIRE 816 848 784 848
WIRE 1024 848 1024 768
WIRE 32 912 0 912
WIRE 128 912 112 912
WIRE 368 912 336 912
WIRE 464 912 448 912
WIRE 704 912 672 912
WIRE 800 912 784 912
WIRE -464 992 -464 928
WIRE -288 992 -288 912
WIRE -288 992 -464 992
WIRE 80 992 80 944
WIRE 80 992 -288 992
WIRE 416 992 416 944
WIRE 416 992 80 992
WIRE 752 992 752 944
WIRE 752 992 416 992
WIRE 1024 992 1024 912
WIRE 1024 992 752 992
WIRE 1120 992 1120 448
WIRE 1120 992 1024 992
WIRE -464 1008 -464 992
FLAG 1424 240 V_dc+
IOPIN 1424 240 Out
FLAG 1424 448 V_dc-
IOPIN 1424 448 Out
FLAG -16 160 V_G1
IOPIN -16 160 In
FLAG 320 160 V_G2
IOPIN 320 160 In
FLAG 656 160 V_G3
IOPIN 656 160 In
FLAG 1680 -128 0
FLAG 1888 -128 T_c
IOPIN 1888 -128 In
FLAG 112 160 T_c
IOPIN 112 160 In
FLAG 448 160 T_c
IOPIN 448 160 In
FLAG 784 160 T_c
IOPIN 784 160 In
FLAG 128 96 T_j
IOPIN 128 96 Out
FLAG 464 96 T_j
IOPIN 464 96 Out
FLAG 800 96 T_j
IOPIN 800 96 Out
FLAG 48 192 0
FLAG 384 192 0
FLAG 720 192 0
FLAG -480 256 0
FLAG 0 912 V_G4
IOPIN 0 912 In
FLAG 336 912 V_G5
IOPIN 336 912 In
FLAG 672 912 V_G6
IOPIN 672 912 In
FLAG 128 912 T_c
IOPIN 128 912 In
FLAG 464 912 T_c
IOPIN 464 912 In
FLAG 800 912 T_c
IOPIN 800 912 In
FLAG 144 848 T_j
IOPIN 144 848 Out
FLAG 480 848 T_j
IOPIN 480 848 Out
FLAG 816 848 T_j
IOPIN 816 848 Out
FLAG 64 944 0
FLAG 400 944 0
FLAG 736 944 0
FLAG -464 1008 0
FLAG 1680 128 0
FLAG 1872 128 V_G2
IOPIN 1872 128 In
FLAG 1680 0 0
FLAG 1872 0 V_G1
IOPIN 1872 0 In
FLAG 1680 256 0
FLAG 1872 256 V_G3
IOPIN 1872 256 In
FLAG 1680 384 0
FLAG 1872 384 V_G4
IOPIN 1872 384 In
FLAG 1680 512 0
FLAG 1872 512 V_G5
IOPIN 1872 512 In
FLAG 1680 640 0
FLAG 1872 640 V_G6
IOPIN 1872 640 In
FLAG 864 768 V_A6
IOPIN 864 768 Out
FLAG 768 -48 V_A6
IOPIN 768 -48 In
SYMBOL voltage -480 80 R0
WINDOW 123 0 0 Left 0
WINDOW 39 0 0 Left 0
SYMATTR InstName V_in1
SYMATTR Value 48
SYMBOL ind -224 -320 R270
WINDOW 0 32 56 VTop 2
WINDOW 3 5 56 VBottom 2
SYMATTR InstName L_1
SYMATTR Value 25.33µ
SYMBOL ind -224 -144 R270
WINDOW 0 32 56 VTop 2
WINDOW 3 5 56 VBottom 2
SYMATTR InstName L_2
SYMATTR Value 25.33µ
SYMBOL ind -224 32 R270
WINDOW 0 32 56 VTop 2
WINDOW 3 5 56 VBottom 2
SYMATTR InstName L_3
SYMATTR Value 25.33µ
SYMBOL cap -320 96 R0
SYMATTR InstName C_in1
SYMATTR Value 47µ
SYMBOL voltage 1840 -128 R90
WINDOW 0 -32 56 VBottom 2
WINDOW 3 32 56 VTop 2
WINDOW 123 0 0 Left 0
WINDOW 39 0 0 Left 0
SYMATTR InstName T_c1
SYMATTR Value 25
SYMBOL cap 992 96 R0
SYMATTR InstName C_out1
SYMATTR Value 18µ
SYMBOL nmos_TO247_4L 16 80 R0
WINDOW 3 -171 27 Left 2
WINDOW 0 -28 53 Left 2
SYMATTR Value C3M0016120K
SYMATTR InstName U1
SYMBOL nmos_TO247_4L 352 80 R0
WINDOW 3 -170 28 Left 2
WINDOW 0 -28 53 Left 2
SYMATTR Value C3M0016120K
SYMATTR InstName U2
SYMBOL nmos_TO247_4L 688 80 R0
WINDOW 3 -169 29 Left 2
WINDOW 0 -28 53 Left 2
SYMATTR Value C3M0016120K
SYMATTR InstName U3
SYMBOL C4D20120D 880 -240 R0
SYMATTR InstName U7
SYMBOL voltage -464 832 R0
WINDOW 123 0 0 Left 0
WINDOW 39 0 0 Left 0
SYMATTR InstName V_in2
SYMATTR Value 48
SYMBOL ind -208 432 R270
WINDOW 0 32 56 VTop 2
WINDOW 3 5 56 VBottom 2
SYMATTR InstName L_4
SYMATTR Value 25.33µ
SYMBOL ind -208 608 R270
WINDOW 0 32 56 VTop 2
WINDOW 3 5 56 VBottom 2
SYMATTR InstName L_5
SYMATTR Value 25.33µ
SYMBOL ind -208 784 R270
WINDOW 0 32 56 VTop 2
WINDOW 3 5 56 VBottom 2
SYMATTR InstName L_6
SYMATTR Value 25.33µ
SYMBOL cap -304 848 R0
SYMATTR InstName C_in2
SYMATTR Value 47µ
SYMBOL cap 1008 848 R0
SYMATTR InstName C_out2
SYMATTR Value 18µ
SYMBOL nmos_TO247_4L 32 832 R0
WINDOW 3 -171 27 Left 2
WINDOW 0 -28 53 Left 2
SYMATTR Value C3M0016120K
SYMATTR InstName U4
SYMBOL nmos_TO247_4L 368 832 R0
WINDOW 3 -170 28 Left 2
WINDOW 0 -28 53 Left 2
SYMATTR Value C3M0016120K
SYMATTR InstName U5
SYMBOL nmos_TO247_4L 704 832 R0
WINDOW 3 -169 29 Left 2
WINDOW 0 -28 53 Left 2
SYMATTR Value C3M0016120K
SYMATTR InstName U6
SYMBOL C4D20120D 880 -16 R0
SYMATTR InstName U8
SYMBOL C4D20120D 880 512 R0
SYMATTR InstName U9
SYMBOL res 1344 288 R0
SYMATTR InstName R_L
SYMATTR Value 10
SYMBOL voltage 1840 128 R90
WINDOW 0 -32 56 VBottom 2
WINDOW 3 32 56 VTop 2
WINDOW 123 0 0 Left 0
WINDOW 39 0 0 Left 0
SYMATTR InstName V_G2
SYMATTR Value PULSE(0 15 1.6667u 10n 10n 8.8u 10u)
SYMBOL voltage 1840 0 R90
WINDOW 0 -32 56 VBottom 2
WINDOW 3 32 56 VTop 2
WINDOW 123 0 0 Left 0
WINDOW 39 0 0 Left 0
SYMATTR InstName V_G1
SYMATTR Value PULSE(0 15 0 10n 10n 8.8u 10u)
SYMBOL voltage 1840 256 R90
WINDOW 0 -32 56 VBottom 2
WINDOW 3 32 56 VTop 2
WINDOW 123 0 0 Left 0
WINDOW 39 0 0 Left 0
SYMATTR InstName V_G3
SYMATTR Value PULSE(0 15 3.3333u 10n 10n 8.8u 10u)
SYMBOL voltage 1840 384 R90
WINDOW 0 -32 56 VBottom 2
WINDOW 3 32 56 VTop 2
WINDOW 123 0 0 Left 0
WINDOW 39 0 0 Left 0
SYMATTR InstName V_G4
SYMATTR Value PULSE(0 15 5.0000u 10n 10n 8.8u 10u)
SYMBOL voltage 1840 512 R90
WINDOW 0 -32 56 VBottom 2
WINDOW 3 32 56 VTop 2
WINDOW 123 0 0 Left 0
WINDOW 39 0 0 Left 0
SYMATTR InstName V_G5
SYMATTR Value PULSE(0 15 6.6667u 10n 10n 8.8u 10u)
SYMBOL voltage 1840 640 R90
WINDOW 0 -32 56 VBottom 2
WINDOW 3 32 56 VTop 2
WINDOW 123 0 0 Left 0
WINDOW 39 0 0 Left 0
SYMATTR InstName V_G6
SYMATTR Value PULSE(0 15 8.3333u 10n 10n 8.8u 10u)
TEXT 1152 -352 Left 2 ;Simulación:
TEXT 1184 -320 Left 2 !.include Wolfspeed Power C4D Packaged SPICE Model Library.lib
TEXT 1184 -272 Left 2 !.tran 0 3m 2.8m uic
TEXT 1184 -296 Left 2 !.include C3M0016120K.lib
TEXT 1184 -248 Left 2 !.ic V(V_dc+)=400 I(L1)=55.55 I(L2)=55.55 I(L3)=55.55 I(L4)=55.55 I(L5)=55.55 I(L6)=55.55
