Version 4
SHEET 1 928 680
WIRE 624 -112 592 -112
WIRE 112 -80 -96 -80
WIRE 224 -80 112 -80
WIRE 400 -80 304 -80
WIRE 464 -80 400 -80
WIRE 624 -80 624 -112
WIRE 768 -80 624 -80
WIRE 800 -80 768 -80
WIRE -96 0 -96 -80
WIRE 400 0 400 -80
WIRE 112 16 112 -80
WIRE 464 16 432 16
WIRE 624 16 624 -80
WIRE 768 16 768 -80
WIRE 352 80 256 80
WIRE 464 80 432 80
WIRE -96 176 -96 80
WIRE 112 176 112 80
WIRE 112 176 -96 176
WIRE 400 176 400 112
WIRE 400 176 112 176
WIRE 624 176 624 80
WIRE 624 176 400 176
WIRE 768 176 768 96
WIRE 768 176 624 176
WIRE -96 192 -96 176
WIRE 0 288 -32 288
WIRE 224 288 80 288
WIRE 512 288 224 288
WIRE 224 352 224 288
WIRE 240 352 224 352
WIRE 512 352 512 288
WIRE 512 352 496 352
WIRE 688 400 688 384
WIRE 0 432 -32 432
WIRE 240 432 80 432
WIRE 512 432 496 432
WIRE 688 496 688 480
WIRE 240 512 224 512
WIRE 512 512 496 512
WIRE 224 576 224 512
WIRE 512 576 512 512
FLAG 800 -80 V_out
IOPIN 800 -80 Out
FLAG -96 192 0
FLAG 256 80 V_G
IOPIN 256 80 In
FLAG 512 432 V_G
IOPIN 512 432 In
FLAG 384 112 0
FLAG 464 80 T_c
IOPIN 464 80 In
FLAG 464 16 T_j
IOPIN 464 16 Out
FLAG 688 496 0
FLAG 688 384 T_c
IOPIN 688 384 In
FLAG 224 576 0
FLAG 512 576 0
FLAG -32 432 0
FLAG -32 288 0
SYMBOL ind 208 -64 R270
WINDOW 0 32 56 VTop 2
WINDOW 3 5 56 VBottom 2
SYMATTR InstName L
SYMATTR Value 25.33”
SYMBOL cap 608 16 R0
SYMATTR InstName C_out
SYMATTR Value 18”
SYMBOL cap 96 16 R0
SYMATTR InstName C_in
SYMATTR Value 47”
SYMBOL voltage -96 -16 R0
WINDOW 123 0 0 Left 0
WINDOW 39 0 0 Left 0
SYMATTR InstName V_in
SYMATTR Value 48
SYMBOL nmos_TO247_4L 352 0 R0
WINDOW 3 -160 28 Left 2
WINDOW 0 -28 53 Left 2
SYMATTR Value C3M0016120K
SYMATTR InstName U1
SYMBOL res 752 0 R0
SYMATTR InstName R_L
SYMATTR Value 60
SYMBOL C4D20120D 512 -112 R0
SYMATTR InstName U2
SYMBOL voltage 96 432 R90
WINDOW 0 -32 56 VBottom 2
WINDOW 3 32 56 VTop 2
SYMATTR InstName V_uC
SYMATTR Value PULSE(0 3.3 0 10n 10n 8.8u 10u)
SYMBOL PowerProducts\\LTC4440 368 432 R0
SYMATTR InstName U4
SYMBOL voltage 96 288 R90
WINDOW 0 -32 56 VBottom 2
WINDOW 3 32 56 VTop 2
SYMATTR InstName V_CC
SYMATTR Value 15
SYMBOL voltage 688 384 R0
SYMATTR InstName T_C
SYMATTR Value 25
TEXT -248 -320 Left 2 ;Simulación:
TEXT -176 -224 Left 2 !.include Wolfspeed Power C4D Packaged SPICE Model Library.lib
TEXT -176 -176 Left 2 !.tran 0 5m 4.8m 20n
TEXT -176 -200 Left 2 !.include C3M0016120K.lib
