Version 4
SHEET 1 2696 872
WIRE 608 -144 576 -144
WIRE 832 -144 608 -144
WIRE 1040 -144 832 -144
WIRE 608 -80 608 -144
WIRE 672 -80 656 -80
WIRE 832 -80 832 -144
WIRE 896 -80 880 -80
WIRE 1040 -32 1040 -144
WIRE 320 16 320 0
WIRE 608 16 608 -16
WIRE 608 16 320 16
WIRE 320 80 320 16
WIRE 1040 144 1040 48
WIRE 1360 176 1328 176
WIRE 1472 176 1440 176
WIRE 320 224 320 160
WIRE 832 224 832 -16
WIRE 832 224 320 224
WIRE 320 256 320 224
WIRE 608 272 608 16
WIRE 832 272 832 224
WIRE 1360 320 1328 320
WIRE 1472 320 1440 320
WIRE 608 384 608 336
WIRE 832 384 832 336
WIRE 832 384 608 384
WIRE 1040 384 1040 224
WIRE 1040 384 832 384
WIRE 448 416 368 416
WIRE 448 432 448 416
WIRE 576 448 496 448
WIRE 528 496 496 496
WIRE 528 512 528 496
WIRE 848 512 816 512
WIRE 960 512 928 512
WIRE 448 528 448 512
WIRE 448 528 368 528
WIRE 576 528 576 448
WIRE 624 528 576 528
WIRE 624 560 576 560
WIRE 816 576 816 512
WIRE 816 576 784 576
WIRE 960 576 848 576
WIRE 1152 576 1152 544
WIRE 1296 576 1296 544
WIRE 448 592 368 592
WIRE 448 608 448 592
WIRE 848 608 848 576
WIRE 848 608 784 608
WIRE 576 624 576 560
WIRE 576 624 496 624
WIRE 960 640 784 640
WIRE 528 672 496 672
WIRE 960 672 784 672
WIRE 528 688 528 672
WIRE 960 688 960 672
WIRE 1152 688 1152 656
WIRE 1296 688 1296 656
WIRE 448 704 448 688
WIRE 448 704 368 704
FLAG 672 -80 V_G1
IOPIN 672 -80 Out
FLAG 896 -80 V_G2
IOPIN 896 -80 Out
FLAG 368 416 V_G1
IOPIN 368 416 Out
FLAG 368 592 V_G2
IOPIN 368 592 Out
FLAG 368 528 K_12
IOPIN 368 528 Out
FLAG 368 704 K_12
IOPIN 368 704 Out
FLAG 576 -144 K_12
IOPIN 576 -144 Out
FLAG 320 256 0
FLAG 960 688 0
FLAG 1152 688 0
FLAG 960 640 V_CC
IOPIN 960 640 Out
FLAG 1152 544 V_CC
IOPIN 1152 544 Out
FLAG 320 0 V_P
IOPIN 320 0 Out
FLAG 960 512 V_P
IOPIN 960 512 Out
FLAG 960 576 V_Cont
IOPIN 960 576 Out
FLAG 1296 688 0
FLAG 1296 544 V_Cont
IOPIN 1296 544 Out
FLAG 528 512 0
FLAG 528 688 0
FLAG 1472 176 V_G1
IOPIN 1472 176 Out
FLAG 1328 176 K_12
IOPIN 1328 176 Out
FLAG 1328 320 K_12
IOPIN 1328 320 Out
FLAG 1472 320 V_G2
IOPIN 1472 320 Out
SYMBOL voltage 320 64 R0
WINDOW 123 24 124 Left 2
WINDOW 39 0 0 Left 0
SYMATTR Value2 AC 311.12
SYMATTR InstName V_P
SYMATTR Value SINE(0 311.12 50)
SYMBOL Misc\\SCR 624 -16 R180
SYMATTR InstName U1
SYMBOL Misc\\SCR 848 -16 R180
SYMATTR InstName U2
SYMBOL res 1024 -48 R0
WINDOW 3 36 68 Left 2
SYMATTR Value 43.4
SYMATTR InstName R_m
SYMBOL ind 1024 128 R0
SYMATTR InstName L_a
SYMATTR Value 50m
SYMBOL diode 624 336 R180
WINDOW 0 24 64 Left 2
WINDOW 3 24 0 Left 2
SYMATTR InstName D1
SYMATTR Value 1N5408
SYMBOL diode 848 336 R180
WINDOW 0 24 64 Left 2
WINDOW 3 24 0 Left 2
SYMATTR InstName D2
SYMATTR Value 1N5408
SYMBOL voltage 1152 560 R0
SYMATTR InstName V_CC
SYMATTR Value 15
SYMBOL res 944 496 R90
WINDOW 0 0 56 VBottom 2
WINDOW 3 32 56 VTop 2
SYMATTR InstName R_Sync
SYMATTR Value 1.55 Meg
SYMBOL voltage 1296 560 R0
SYMATTR InstName V_Cont
SYMATTR Value 1.953
SYMBOL e 448 416 M0
SYMATTR InstName E1
SYMBOL e 448 592 M0
SYMATTR InstName E2
SYMBOL TCA785 704 592 R0
SYMATTR InstName U3
SYMBOL voltage 1456 176 R90
WINDOW 0 -32 56 VBottom 2
WINDOW 3 32 56 VTop 2
WINDOW 123 0 0 Left 0
WINDOW 39 0 0 Left 0
SYMATTR InstName V_G1
SYMATTR Value PULSE(0 5 1.94m 1u 1u 1m 20m)
SYMBOL voltage 1456 320 R90
WINDOW 0 -32 56 VBottom 2
WINDOW 3 32 56 VTop 2
SYMATTR InstName V_G2
SYMATTR Value PULSE(0 5 11.94m 1u 1u 1m 20m)
TEXT 1160 -96 Left 2 ;Simulación:
TEXT 1184 56 Left 2 !.inc thyristr.lib
TEXT 1184 -64 Left 2 !.tran 0 100m 100u 100u
TEXT 1184 -32 Left 2 !.model 1N5408 D(Is=63.0n Rs=14.1m N=1.70 Tt=4.32u \n                      + Cjo=53.0p M=0.333 BV=1000 Ibv=10.0u \n                      + Mfg=DiodesInc Type=Silicon)
TEXT 1184 88 Left 2 !.inc TCA785.lib
