Version 4
SHEET 1 1020 856
WIRE 448 -80 432 -80
WIRE 640 -80 448 -80
WIRE 816 -80 640 -80
WIRE 944 -80 816 -80
WIRE 448 -32 448 -80
WIRE 512 -32 496 -32
WIRE 640 -32 640 -80
WIRE 704 -32 688 -32
WIRE 944 0 944 -80
WIRE 176 80 -96 80
WIRE 448 80 448 32
WIRE 448 80 272 80
WIRE 464 80 448 80
WIRE -96 128 -96 80
WIRE 176 128 176 80
WIRE 272 128 272 80
WIRE 816 128 816 -80
WIRE 944 224 944 80
WIRE -96 256 -96 208
WIRE 176 256 176 208
WIRE 176 256 -96 256
WIRE 272 256 272 208
WIRE 640 256 640 32
WIRE 640 256 272 256
WIRE 656 256 640 256
WIRE -96 272 -96 256
WIRE 448 304 448 80
WIRE 512 304 496 304
WIRE 640 304 640 256
WIRE 704 304 688 304
WIRE 448 416 448 368
WIRE 640 416 640 368
WIRE 640 416 448 416
WIRE 816 416 816 192
WIRE 816 416 640 416
WIRE 944 416 944 304
WIRE 944 416 816 416
WIRE 208 528 160 528
WIRE 336 528 288 528
WIRE 608 528 560 528
WIRE 736 528 688 528
WIRE 208 656 160 656
WIRE 336 656 288 656
WIRE 608 656 560 656
WIRE 736 656 688 656
FLAG -96 272 0
FLAG 512 -32 G1
IOPIN 512 -32 In
FLAG 704 -32 G2
IOPIN 704 -32 In
FLAG 512 304 G3
IOPIN 512 304 In
FLAG 704 304 G4
IOPIN 704 304 In
FLAG 464 80 K_3
IOPIN 464 80 Out
FLAG 432 -80 K_12
IOPIN 432 -80 Out
FLAG 336 528 G1
IOPIN 336 528 In
FLAG 336 656 G2
IOPIN 336 656 In
FLAG 656 256 K_4
IOPIN 656 256 Out
FLAG 736 656 G4
IOPIN 736 656 In
FLAG 160 528 K_12
IOPIN 160 528 Out
FLAG 560 656 K_4
IOPIN 560 656 Out
FLAG 160 656 K_12
IOPIN 160 656 Out
FLAG 736 528 G3
IOPIN 736 528 In
FLAG 560 528 K_3
IOPIN 560 528 Out
SYMBOL voltage -96 112 R0
WINDOW 123 24 124 Left 2
WINDOW 39 0 0 Left 0
SYMATTR InstName V_P
SYMATTR Value SINE(0 311.13 50)
SYMATTR Value2 AC 311.13
SYMBOL ind2 160 112 R0
SYMATTR InstName L_P
SYMATTR Value 84µ
SYMATTR Type ind
SYMATTR SpiceLine Rser=1m
SYMBOL ind2 256 112 R0
SYMATTR InstName L_S
SYMATTR Value 1µ
SYMATTR Type ind
SYMATTR SpiceLine Rser=1m
SYMBOL Misc\\SCR 464 32 R180
SYMATTR InstName U1
SYMBOL Misc\\SCR 656 32 R180
SYMATTR InstName U2
SYMBOL Misc\\SCR 464 368 R180
SYMATTR InstName U3
SYMBOL Misc\\SCR 656 368 R180
SYMATTR InstName U4
SYMBOL diode 832 192 R180
WINDOW 0 24 64 Left 2
WINDOW 3 24 0 Left 2
SYMATTR InstName D1
SYMATTR Value 1N4007
SYMBOL res 928 -16 R0
SYMATTR InstName R
SYMATTR Value 10
SYMBOL ind 928 208 R0
SYMATTR InstName L
SYMATTR Value 10m
SYMBOL voltage 304 528 R90
WINDOW 0 -32 56 VBottom 2
WINDOW 3 32 56 VTop 2
WINDOW 123 0 0 Left 0
WINDOW 39 0 0 Left 0
SYMATTR InstName V_G1
SYMATTR Value PULSE(0 5 3.33m 1u 1u 1m 20m)
SYMBOL voltage 304 656 R90
WINDOW 0 -32 56 VBottom 2
WINDOW 3 32 56 VTop 2
WINDOW 123 0 0 Left 0
WINDOW 39 0 0 Left 0
SYMATTR InstName V_G2
SYMATTR Value PULSE(0 5 13.33m 1u 1u 1m 20m)
SYMBOL voltage 704 656 R90
WINDOW 0 -32 56 VBottom 2
WINDOW 3 32 56 VTop 2
WINDOW 123 0 0 Left 0
WINDOW 39 0 0 Left 0
SYMATTR InstName V_G4
SYMATTR Value PULSE(0 5 3.33m 1u 1u 1m 20m)
SYMBOL voltage 704 528 R90
WINDOW 0 -32 56 VBottom 2
WINDOW 3 32 56 VTop 2
WINDOW 123 0 0 Left 0
WINDOW 39 0 0 Left 0
SYMATTR InstName V_G3
SYMATTR Value PULSE(0 5 13.33m 1u 1u 1m 20m)
TEXT -112 -96 Left 2 ;Simulación:
TEXT -72 -24 Left 2 !K L_P L_S 0.99
TEXT -80 -48 Left 2 !.inc thyristr.lib
TEXT -80 -72 Left 2 !.tran 0 100m 0 10u
